LTspice 26.0.0 for Windows
Circuit: C:\Users\Kacper\Downloads\tor_rx_transient.cir
Start Time: Sun Feb  8 21:11:45 2026
solver = Normal
Maximum thread count: 24
tnom = 27
temp = 27
method = trap
Direct Newton iteration succeeded in finding operating point.
Total elapsed time: 0.074 seconds.

Files loaded:
C:\Users\Kacper\Downloads\tor_rx_transient.cir

